!-Generator IDFEditor 1.49
!-Option SortedOrder UseSpecialFormat

!-NOTE: All comments with '!-' are ignored by the IDFEditor and are generated automatically.
!-      Use '!' comments if they need to be retained when using the IDFEditor.


!-   ===========  ALL OBJECTS IN CLASS: VERSION ===========

Version,8.7;

!-   ===========  ALL OBJECTS IN CLASS: SIMULATIONCONTROL ===========


SimulationControl,
    No,                      !- Do Zone Sizing Calculation
    No,                      !- Do System Sizing Calculation
    No,                      !- Do Plant Sizing Calculation
    No,                      !- Run Simulation for Sizing Periods
    Yes;                     !- Run Simulation for Weather File Run Periods


!-   ===========  ALL OBJECTS IN CLASS: BUILDING ===========

Building,
    SAFAD Building,          !- Name
    15,                      !- North Axis {deg}
    City,                    !- Terrain
    0.04,                    !- Loads Convergence Tolerance Value
    0.4,                     !- Temperature Convergence Tolerance Value {deltaC}
    FullInteriorAndExterior, !- Solar Distribution
    25,                      !- Maximum Number of Warmup Days
    6;                       !- Minimum Number of Warmup Days


!-   ===========  ALL OBJECTS IN CLASS: SHADOWCALCULATION ===========

ShadowCalculation,
    AverageOverDaysInFrequency,  !- Calculation Method
    20,                      !- Calculation Frequency
    15000,                   !- Maximum Figures in Shadow Overlap Calculations
    SutherlandHodgman,       !- Polygon Clipping Algorithm
    SimpleSkyDiffuseModeling;!- Sky Diffuse Modeling Algorithm


!-   ===========  ALL OBJECTS IN CLASS: SURFACECONVECTIONALGORITHM:INSIDE ===========

SurfaceConvectionAlgorithm:Inside,TARP;

!-   ===========  ALL OBJECTS IN CLASS: SURFACECONVECTIONALGORITHM:OUTSIDE ===========

SurfaceConvectionAlgorithm:Outside,DOE-2;

!-   ===========  ALL OBJECTS IN CLASS: HEATBALANCEALGORITHM ===========

HeatBalanceAlgorithm,ConductionTransferFunction;

!-   ===========  ALL OBJECTS IN CLASS: TIMESTEP ===========

Timestep,6;

!-   ===========  ALL OBJECTS IN CLASS: SITE:LOCATION ===========


Site:Location,
    Cebu City,               !- Name
    10.35,                   !- Latitude {deg}
    123.91,                  !- Longitude {deg}
    8.0,                     !- Time Zone {hr}
    75;                      !- Elevation {m}


!-   ===========  ALL OBJECTS IN CLASS: RUNPERIOD ===========

RunPeriod,
    RunPeriod,               !- Name
    4,                       !- Begin Month
    1,                       !- Begin Day of Month
    4,                       !- End Month
    30,                      !- End Day of Month
    Monday,                  !- Day of Week for Start Day
    No,                      !- Use Weather File Holidays and Special Days
    Yes,                     !- Use Weather File Daylight Saving Period
    No,                      !- Apply Weekend Holiday Rule
    Yes,                     !- Use Weather File Rain Indicators
    Yes,                     !- Use Weather File Snow Indicators
    ,                        !- Number of Times Runperiod to be Repeated
    ,                        !- Increment Day of Week on repeat
    2019;                    !- Start Year


!-   ===========  ALL OBJECTS IN CLASS: RUNPERIODCONTROL:SPECIALDAYS ===========

RunPeriodControl:SpecialDays,
    New Years Day,           !- Name
    January 1,               !- Start Date
    1,                       !- Duration {days}
    Holiday;                 !- Special Day Type

RunPeriodControl:SpecialDays,
    Chinese New Year,        !- Name
    February 5,              !- Start Date
    1,                       !- Duration {days}
    Holiday;                 !- Special Day Type

RunPeriodControl:SpecialDays,
    EDSA,                    !- Name
    February 25,             !- Start Date
    1,                       !- Duration {days}
    Holiday;                 !- Special Day Type

RunPeriodControl:SpecialDays,
    The Day of Valor,        !- Name
    April 9,                 !- Start Date
    1,                       !- Duration {days}
    Holiday;                 !- Special Day Type

RunPeriodControl:SpecialDays,
    Maundy Thursday,         !- Name
    April 18,                !- Start Date
    1,                       !- Duration {days}
    Holiday;                 !- Special Day Type

RunPeriodControl:SpecialDays,
    Good Friday,             !- Name
    April 19,                !- Start Date
    1,                       !- Duration {days}
    Holiday;                 !- Special Day Type

RunPeriodControl:SpecialDays,
    Black Saturday,          !- Name
    April 20,                !- Start Date
    1,                       !- Duration {days}
    Holiday;                 !- Special Day Type

RunPeriodControl:SpecialDays,
    Easter Sunday,           !- Name
    April 21,                !- Start Date
    1,                       !- Duration {days}
    Holiday;                 !- Special Day Type

RunPeriodControl:SpecialDays,
    Labor Day,               !- Name
    May 1,                   !- Start Date
    1,                       !- Duration {days}
    Holiday;                 !- Special Day Type

RunPeriodControl:SpecialDays,
    Eidul-Fitar,             !- Name
    June 6,                  !- Start Date
    1,                       !- Duration {days}
    Holiday;                 !- Special Day Type

RunPeriodControl:SpecialDays,
    Independence Day,        !- Name
    June 12,                 !- Start Date
    1,                       !- Duration {days}
    Holiday;                 !- Special Day Type

RunPeriodControl:SpecialDays,
    Eid al-Adha,             !- Name
    August 12,               !- Start Date
    1,                       !- Duration {days}
    Holiday;                 !- Special Day Type

RunPeriodControl:SpecialDays,
    Ninoy Aquino Day,        !- Name
    August 21,               !- Start Date
    1,                       !- Duration {days}
    Holiday;                 !- Special Day Type

RunPeriodControl:SpecialDays,
    National Heroes Day,     !- Name
    August 26,               !- Start Date
    1,                       !- Duration {days}
    Holiday;                 !- Special Day Type

RunPeriodControl:SpecialDays,
    All Saints Day,          !- Name
    November 1,              !- Start Date
    1,                       !- Duration {days}
    Holiday;                 !- Special Day Type

RunPeriodControl:SpecialDays,
    All Souls Day,           !- Name
    November 2,              !- Start Date
    1,                       !- Duration {days}
    Holiday;                 !- Special Day Type

RunPeriodControl:SpecialDays,
    Bonifacio Day,           !- Name
    November 30,             !- Start Date
    1,                       !- Duration {days}
    Holiday;                 !- Special Day Type

RunPeriodControl:SpecialDays,
    Immaculate Conception,   !- Name
    December 8,              !- Start Date
    1,                       !- Duration {days}
    Holiday;                 !- Special Day Type

RunPeriodControl:SpecialDays,
    Christmas Day,           !- Name
    December 25,             !- Start Date
    1,                       !- Duration {days}
    Holiday;                 !- Special Day Type

RunPeriodControl:SpecialDays,
    Rizal Day,               !- Name
    December 30,             !- Start Date
    1,                       !- Duration {days}
    Holiday;                 !- Special Day Type

RunPeriodControl:SpecialDays,
    Ash Wednesday,           !- Name
    April 17,                !- Start Date
    1,                       !- Duration {days}
    Holiday;                 !- Special Day Type


!-   ===========  ALL OBJECTS IN CLASS: SITE:GROUNDTEMPERATURE:BUILDINGSURFACE ===========

Site:GroundTemperature:BuildingSurface,18,18,18,18,18,18,18,18,18,18,18,18;

!-   ===========  ALL OBJECTS IN CLASS: SCHEDULETYPELIMITS ===========


ScheduleTypeLimits,
    Any Number;              !- Name

ScheduleTypeLimits,
    Fraction,                !- Name
    0.0,                     !- Lower Limit Value
    1.0,                     !- Upper Limit Value
    CONTINUOUS;              !- Numeric Type

ScheduleTypeLimits,
    Temperature,             !- Name
    -60,                     !- Lower Limit Value
    200,                     !- Upper Limit Value
    CONTINUOUS;              !- Numeric Type

ScheduleTypeLimits,
    On/Off,                  !- Name
    0,                       !- Lower Limit Value
    1,                       !- Upper Limit Value
    DISCRETE;                !- Numeric Type

ScheduleTypeLimits,
    Control Type,            !- Name
    0,                       !- Lower Limit Value
    4,                       !- Upper Limit Value
    DISCRETE;                !- Numeric Type

ScheduleTypeLimits,
    Humidity,                !- Name
    10,                      !- Lower Limit Value
    90,                      !- Upper Limit Value
    CONTINUOUS;              !- Numeric Type

ScheduleTypeLimits,
    Number;                  !- Name


!-   ===========  ALL OBJECTS IN CLASS: SCHEDULE:COMPACT ===========

Schedule:Compact,
    AF101ACUSchedule,        !- Name
    On/Off,                  !- Schedule Type Limits Name
    Through: 12/31,          !- Field 1
    For: Monday,             !- Field 2
    Until: 10:30, 0,         !- Field 4
    Until: 14:30, 1,         !- Field 6
    Until: 16:00, 0,         !- Field 8
    Until: 18:30, 1,         !- Field 10
    Until: 24:00, 0,         !- Field 12
    For: Wednesday,          !- Field 13
    Until: 10:30, 0,         !- Field 15
    Until: 14:30, 1,         !- Field 17
    Until: 16:00, 0,         !- Field 19
    Until: 18:30, 1,         !- Field 21
    Until: 24:00, 0,         !- Field 23
    For: Friday,             !- Field 24
    Until: 10:30, 0,         !- Field 26
    Until: 14:30, 1,         !- Field 28
    Until: 16:00, 0,         !- Field 30
    Until: 18:30, 1,         !- Field 32
    Until: 24:00, 0,         !- Field 34
    For: Tuesday,            !- Field 35
    Until: 07:30, 0,         !- Field 37
    Until: 10:00, 1,         !- Field 39
    Until: 10:30, 0,         !- Field 41
    Until: 20:00, 1,         !- Field 43
    Until: 24:00, 0,         !- Field 45
    For: Thursday,           !- Field 46
    Until: 07:30, 0,         !- Field 48
    Until: 10:00, 1,         !- Field 50
    Until: 10:30, 0,         !- Field 52
    Until: 20:00, 1,         !- Field 54
    Until: 24:00, 0,         !- Field 56
    For: Saturday,           !- Field 57
    Until: 08:00, 0,         !- Field 59
    Until: 11:00, 1,         !- Field 61
    Until: 11:30, 0,         !- Field 63
    Until: 17:30, 1,         !- Field 65
    Until: 18:00, 0,         !- Field 67
    Until: 21:00, 1,         !- Field 69
    Until: 24:00, 0,         !- Field 71
    For: Sunday,             !- Field 72
    Until: 24:00, 0;         !- Field 74

Schedule:Compact,
    ACUControlType,          !- Name
    Any Number,              !- Schedule Type Limits Name
    Through: 12/31,          !- Field 1
    For: AllDays,            !- Field 2
    Until: 24:00, 2;         !- Field 4

Schedule:Compact,
    CoolingSetpointSchedule, !- Name
    Temperature,             !- Schedule Type Limits Name
    Through: 12/31,          !- Field 1
    For: AllDays,            !- Field 2
    Until: 24:00,  26;       !- Field 4

Schedule:Compact,
    AF102ACUSchedule,        !- Name
    On/Off,                  !- Schedule Type Limits Name
    Through: 12/31,          !- Field 1
    For: Monday,             !- Field 2
    Until: 11:30, 0,         !- Field 4
    Until: 18:30, 1,         !- Field 6
    Until: 24:00, 0,         !- Field 8
    For: Wednesday,          !- Field 9
    Until: 11:30, 0,         !- Field 11
    Until: 18:30, 1,         !- Field 13
    Until: 24:00, 0,         !- Field 15
    For: Friday,             !- Field 16
    Until: 11:30, 0,         !- Field 18
    Until: 18:30, 1,         !- Field 20
    Until: 24:00, 0,         !- Field 22
    For: Tuesday,            !- Field 23
    Until: 07:30, 0,         !- Field 25
    Until: 10:30, 1,         !- Field 27
    Until: 12:00, 0,         !- Field 29
    Until: 18:00, 1,         !- Field 31
    Until: 24:00, 0,         !- Field 33
    For: Thursday,           !- Field 34
    Until: 07:30, 0,         !- Field 36
    Until: 10:30, 1,         !- Field 38
    Until: 12:00, 0,         !- Field 40
    Until: 18:00, 1,         !- Field 42
    Until: 24:00, 0,         !- Field 44
    For: Sunday,             !- Field 45
    Until: 24:00, 0;         !- Field 47

Schedule:Compact,
    AF103ACUSchedule,        !- Name
    On/Off,                  !- Schedule Type Limits Name
    Through: 12/31,          !- Field 1
    For: Monday,             !- Field 2
    Until: 07:30, 0,         !- Field 4
    Until: 09:30, 1,         !- Field 6
    Until: 10:30, 0,         !- Field 8
    Until: 11:30, 1,         !- Field 10
    Until: 12:30, 0,         !- Field 12
    Until: 15:30, 1,         !- Field 14
    Until: 17:30, 0,         !- Field 16
    Until: 19:30, 1,         !- Field 18
    Until: 24:00, 0,         !- Field 20
    For: Wednesday,          !- Field 21
    Until: 07:30, 0,         !- Field 23
    Until: 09:30, 1,         !- Field 25
    Until: 10:30, 0,         !- Field 27
    Until: 11:30, 1,         !- Field 29
    Until: 12:30, 0,         !- Field 31
    Until: 13:30, 1,         !- Field 33
    Until: 24:00, 0,         !- Field 35
    For: Friday,             !- Field 36
    Until: 07:30, 0,         !- Field 38
    Until: 09:30, 1,         !- Field 40
    Until: 10:30, 0,         !- Field 42
    Until: 11:30, 1,         !- Field 44
    Until: 12:30, 0,         !- Field 46
    Until: 13:30, 1,         !- Field 48
    Until: 24:00, 0,         !- Field 50
    For: Tuesday,            !- Field 51
    Until: 07:30, 0,         !- Field 53
    Until: 10:30, 1,         !- Field 55
    Until: 15:00, 0,         !- Field 57
    Until: 16:30, 1,         !- Field 59
    Until: 24:00, 0,         !- Field 61
    For: Thursday,           !- Field 62
    Until: 07:30, 0,         !- Field 64
    Until: 10:30, 1,         !- Field 66
    Until: 15:00, 0,         !- Field 68
    Until: 16:30, 1,         !- Field 70
    Until: 24:00, 0,         !- Field 72
    For: Saturday,           !- Field 73
    Until: 09:00, 0,         !- Field 75
    Until: 12:00, 1,         !- Field 77
    Until: 13:30, 0,         !- Field 79
    Until: 16:30, 1,         !- Field 81
    Until: 17:00, 0,         !- Field 83
    Until: 20:00, 1,         !- Field 85
    Until: 24:00, 0,         !- Field 87
    For: Sunday,             !- Field 88
    Until: 24:00, 0;         !- Field 90

Schedule:Compact,
    AF104ACUSchedule,        !- Name
    On/Off,                  !- Schedule Type Limits Name
    Through: 12/31,          !- Field 1
    For: Monday,             !- Field 2
    Until: 07:30, 0,         !- Field 4
    Until: 09:30, 1,         !- Field 6
    Until: 24:00, 0,         !- Field 8
    For: Wednesday,          !- Field 9
    Until: 07:30, 0,         !- Field 11
    Until: 09:30, 1,         !- Field 13
    Until: 24:00, 0,         !- Field 15
    For: Friday,             !- Field 16
    Until: 07:30, 0,         !- Field 18
    Until: 12:30, 1,         !- Field 20
    Until: 24:00, 0,         !- Field 22
    For: Tuesday,            !- Field 23
    Until: 12:30, 0,         !- Field 25
    Until: 15:30, 1,         !- Field 27
    Until: 16:00, 0,         !- Field 29
    Until: 19:00, 1,         !- Field 31
    Until: 24:00, 0,         !- Field 33
    For: Thursday,           !- Field 34
    Until: 07:30, 0,         !- Field 36
    Until: 11:30, 1,         !- Field 38
    Until: 12:30, 0,         !- Field 40
    Until: 16:30, 1,         !- Field 42
    Until: 24:00, 0,         !- Field 44
    For: Saturday,           !- Field 45
    Until: 15:30, 0,         !- Field 47
    Until: 18:30, 1,         !- Field 49
    Until: 24:00, 0,         !- Field 51
    For: Sunday,             !- Field 52
    Until: 24:00, 0;         !- Field 54

Schedule:Compact,
    AF109AACUSchedule,       !- Name
    On/Off,                  !- Schedule Type Limits Name
    Through: 12/31,          !- Field 1
    For: Monday,             !- Field 2
    Until: 07:30, 0,         !- Field 4
    Until: 12:30, 1,         !- Field 6
    Until: 24:00, 0,         !- Field 8
    For: Tuesday,            !- Field 9
    Until: 24:00, 0,         !- Field 11
    For: Wednesday,          !- Field 12
    Until: 24:00, 0,         !- Field 14
    For: Thursday,           !- Field 15
    Until: 24:00, 0,         !- Field 17
    For: Friday,             !- Field 18
    Until: 12:30, 0,         !- Field 20
    Until: 20:30, 1,         !- Field 22
    Until: 24:00, 0,         !- Field 24
    For: Saturday,           !- Field 25
    Until: 24:00, 0,         !- Field 27
    For: Sunday,             !- Field 28
    Until: 24:00, 0;         !- Field 30

Schedule:Compact,
    AF109BACUSchedule,       !- Name
    On/Off,                  !- Schedule Type Limits Name
    Through: 12/31,          !- Field 1
    For: Monday,             !- Field 2
    Until: 08:00, 0,         !- Field 4
    Until: 13:00, 1,         !- Field 6
    Until: 24:00, 0,         !- Field 8
    For: Tuesday,            !- Field 9
    Until: 15:00, 0,         !- Field 11
    Until: 20:00, 1,         !- Field 13
    Until: 24:00, 0,         !- Field 15
    For: Wednesday,          !- Field 16
    Until: 08:00, 0,         !- Field 18
    Until: 13:00, 1,         !- Field 20
    Until: 24:00, 0,         !- Field 22
    For: Thursday,           !- Field 23
    Until: 15:00, 0,         !- Field 25
    Until: 20:00, 1,         !- Field 27
    Until: 24:00, 0,         !- Field 29
    For: Friday,             !- Field 30
    Until: 24:00, 0,         !- Field 32
    For: Saturday,           !- Field 33
    Until: 24:00, 0,         !- Field 35
    For: Sunday,             !- Field 36
    Until: 24:00, 0;         !- Field 38

Schedule:Compact,
    AF110ACUSchedule,        !- Name
    On/Off,                  !- Schedule Type Limits Name
    Through: 12/31,          !- Field 1
    For: Monday,             !- Field 2
    Until: 08:00, 0,         !- Field 4
    Until: 10:30, 1,         !- Field 6
    Until: 24:00, 0,         !- Field 8
    For: Tuesday,            !- Field 9
    Until: 13:30, 0,         !- Field 11
    Until: 20:00, 1,         !- Field 13
    Until: 24:00, 0,         !- Field 15
    For: Wednesday,          !- Field 16
    Until: 08:00, 0,         !- Field 18
    Until: 10:30, 1,         !- Field 20
    Until: 14:30, 0,         !- Field 22
    Until: 16:30, 1,         !- Field 24
    Until: 24:00, 0,         !- Field 26
    For: Thursday,           !- Field 27
    Until: 09:00, 0,         !- Field 29
    Until: 10:30, 1,         !- Field 31
    Until: 15:00, 0,         !- Field 33
    Until: 20:00, 1,         !- Field 35
    Until: 24:00, 0,         !- Field 37
    For: Friday,             !- Field 38
    Until: 07:30, 0,         !- Field 40
    Until: 12:30, 1,         !- Field 42
    Until: 14:30, 0,         !- Field 44
    Until: 16:00, 1,         !- Field 46
    Until: 24:00, 0,         !- Field 48
    For: Saturday,           !- Field 49
    Until: 09:30, 0,         !- Field 51
    Until: 11:00, 1,         !- Field 53
    Until: 24:00, 0,         !- Field 55
    For: Sunday,             !- Field 56
    Until: 24:00, 0;         !- Field 58

Schedule:Compact,
    AF111ACUSchedule,        !- Name
    On/Off,                  !- Schedule Type Limits Name
    Through: 12/31,          !- Field 1
    For: Monday,             !- Field 2
    Until: 10:30, 0,         !- Field 4
    Until: 13:00, 1,         !- Field 6
    Until: 24:00, 0,         !- Field 8
    For: Tuesday,            !- Field 9
    Until: 09:30, 0,         !- Field 11
    Until: 11:30, 1,         !- Field 13
    Until: 13:30, 0,         !- Field 15
    Until: 20:00, 1,         !- Field 17
    Until: 24:00, 0,         !- Field 19
    For: Wednesday,          !- Field 20
    Until: 10:30, 0,         !- Field 22
    Until: 13:00, 1,         !- Field 24
    Until: 24:00, 0,         !- Field 26
    For: Thursday,           !- Field 27
    Until: 08:30, 0,         !- Field 29
    Until: 10:00, 1,         !- Field 31
    Until: 15:00, 0,         !- Field 33
    Until: 20:00, 1,         !- Field 35
    Until: 24:00, 0,         !- Field 37
    For: Friday,             !- Field 38
    Until: 08:30, 0,         !- Field 40
    Until: 13:30, 1,         !- Field 42
    Until: 24:00, 0,         !- Field 44
    For: Saturday,           !- Field 45
    Until: 24:00, 0,         !- Field 47
    For: Sunday,             !- Field 48
    Until: 24:00, 0;         !- Field 50

Schedule:Compact,
    AF101LightEquipmentSchedule,  !- Name
    On/Off,                  !- Schedule Type Limits Name
    Through: 12/31,          !- Field 1
    For: Monday Wednesday Friday,  !- Field 2
    Until: 10:30, 0,         !- Field 4
    Until: 18:30, 1,         !- Field 6
    Until: 24:00, 0,         !- Field 8
    For: Tuesday Thursday,   !- Field 9
    Until: 07:30, 0,         !- Field 11
    Until: 20:00, 1,         !- Field 13
    Until: 24:00, 0,         !- Field 15
    For: Saturday,           !- Field 16
    Until: 08:00, 0,         !- Field 18
    Until: 21:00, 1,         !- Field 20
    Until: 24:00, 0,         !- Field 22
    For: Sunday,             !- Field 23
    Until: 24:00, 0;         !- Field 25

Schedule:Compact,
    AF102LightEquipmentSchedule,  !- Name
    On/Off,                  !- Schedule Type Limits Name
    Through: 12/31,          !- Field 1
    For: Monday Wednesday Friday,  !- Field 2
    Until: 11:30, 0,         !- Field 4
    Until: 18:30, 1,         !- Field 6
    Until: 24:00, 0,         !- Field 8
    For: Tuesday Thursday,   !- Field 9
    Until: 07:30, 0,         !- Field 11
    Until: 18:00, 1,         !- Field 13
    Until: 24:00, 0,         !- Field 15
    For: Saturday,           !- Field 16
    Until: 08:00, 0,         !- Field 18
    Until: 14:30, 1,         !- Field 20
    Until: 24:00, 0,         !- Field 22
    For: Sunday,             !- Field 23
    Until: 24:00, 0;         !- Field 25

Schedule:Compact,
    AF103LightEquipmentSchedule,  !- Name
    On/Off,                  !- Schedule Type Limits Name
    Through: 12/31,          !- Field 1
    For: Monday,             !- Field 2
    Until: 07:30, 0,         !- Field 4
    Until: 19:30, 1,         !- Field 6
    Until: 24:00, 0,         !- Field 8
    For: Tuesday Thursday,   !- Field 9
    Until: 07:30, 0,         !- Field 11
    Until: 16:30, 1,         !- Field 13
    Until: 24:00, 0,         !- Field 15
    For: Wednesday Friday,   !- Field 16
    Until: 07:30, 0,         !- Field 18
    Until: 13:30, 1,         !- Field 20
    Until: 24:00, 0,         !- Field 22
    For: Saturday,           !- Field 23
    Until: 09:00, 0,         !- Field 25
    Until: 20:00, 1,         !- Field 27
    Until: 24:00, 0,         !- Field 29
    For: Sunday,             !- Field 30
    Until: 24:00;
Schedule:Compact,
    AF104LightEquipmentSchedule,  !- Name
    On/Off,                  !- Schedule Type Limits Name
    Through: 12/31,          !- Field 1
    For: Monday Wednesday,   !- Field 2
    Until: 07:30, 0,         !- Field 4
    Until: 09:30, 1,         !- Field 6
    Until: 24:00, 0,         !- Field 8
    For: Tuesday,            !- Field 9
    Until: 12:30, 0,         !- Field 11
    Until: 19:00, 1,         !- Field 13
    Until: 24:00, 0,         !- Field 15
    For: Thursday,           !- Field 16
    Until: 07:30, 0,         !- Field 18
    Until: 16:30, 1,         !- Field 20
    Until: 24:00, 0,         !- Field 22
    For: Friday,             !- Field 23
    Until: 07:30, 0,         !- Field 25
    Until: 12:30, 1,         !- Field 27
    Until: 24:00, 0,         !- Field 29
    For: Saturday,           !- Field 30
    Until: 15:30, 0,         !- Field 32
    Until: 18:30, 1,         !- Field 34
    Until: 24:00, 0,         !- Field 36
    For: Sunday,             !- Field 37
    Until: 24:00, 0;         !- Field 39

Schedule:Compact,
    AF109ALightEquipmentSchedule,  !- Name
    On/Off,                  !- Schedule Type Limits Name
    Through: 12/31,          !- Field 1
    For: Monday,             !- Field 2
    Until: 07:30, 0,         !- Field 4
    Until: 12:30, 1,         !- Field 6
    Until: 24:00, 0,         !- Field 8
    For: Friday,             !- Field 9
    Until: 12:30, 0,         !- Field 11
    Until: 20:30, 1,         !- Field 13
    Until: 24:00, 0,         !- Field 15
    For: Tuesday Wednesday Thursday Saturday Sunday,  !- Field 16
    Until: 24:00, 0;         !- Field 18

Schedule:Compact,
    AF109BLightEquipmentSchedule,  !- Name
    On/Off,                  !- Schedule Type Limits Name
    Through: 12/31,          !- Field 1
    For: Monday Wednesday,   !- Field 2
    Until: 08:00, 0,         !- Field 4
    Until: 13:00, 1,         !- Field 6
    Until: 24:00, 0,         !- Field 8
    For: Tuesday Thursday,   !- Field 9
    Until: 14:00, 0,         !- Field 11
    Until: 20:00, 1,         !- Field 13
    Until: 24:00, 0,         !- Field 15
    For: Friday Saturday Sunday,  !- Field 16
    Until: 24:00, 0;         !- Field 18

Schedule:Compact,
    AF110LightEquipmentSchedule,  !- Name
    On/Off,                  !- Schedule Type Limits Name
    Through: 12/31,          !- Field 1
    For: Monday,             !- Field 2
    Until: 08:00, 0,         !- Field 4
    Until: 10:30, 1,         !- Field 6
    Until: 24:00, 0,         !- Field 8
    For: Tuesday,            !- Field 9
    Until: 13:30, 0,         !- Field 11
    Until: 20:00, 1,         !- Field 13
    Until: 24:00, 0,         !- Field 15
    For: Wednesday,          !- Field 16
    Until: 08:00, 0,         !- Field 18
    Until: 16:30, 1,         !- Field 20
    Until: 24:00, 0,         !- Field 22
    For: Thursday,           !- Field 23
    Until: 08:00, 0,         !- Field 25
    Until: 09:00, 1,         !- Field 27
    Until: 24:00, 0,         !- Field 29
    For: Friday,             !- Field 30
    Until: 07:30, 0,         !- Field 32
    Until: 16:00, 1,         !- Field 34
    Until: 24:00, 0,         !- Field 36
    For: Saturday,           !- Field 37
    Until: 09:30, 0,         !- Field 39
    Until: 11:00, 1,         !- Field 41
    Until: 24:00, 0,         !- Field 43
    For: Sunday,             !- Field 44
    Until: 24:00, 0;         !- Field 46

Schedule:Compact,
    AF111LightEquipmentSchedule,  !- Name
    On/Off,                  !- Schedule Type Limits Name
    Through: 12/31,          !- Field 1
    For: Monday,             !- Field 2
    Until: 10:30, 0,         !- Field 4
    Until: 13:00, 1,         !- Field 6
    Until: 24:00, 0,         !- Field 8
    For: Tuesday,            !- Field 9
    Until: 09:30, 0,         !- Field 11
    Until: 20:00, 1,         !- Field 13
    Until: 24:00, 0,         !- Field 15
    For: Wednesday,          !- Field 16
    Until: 10:30, 0,         !- Field 18
    Until: 13:00, 1,         !- Field 20
    Until: 24:00, 0,         !- Field 22
    For: Thursday,           !- Field 23
    Until: 08:30, 0,         !- Field 25
    Until: 08:00, 1,         !- Field 27
    Until: 24:00, 0,         !- Field 29
    For: Friday,             !- Field 30
    Until: 08:30, 0,         !- Field 32
    Until: 13:30, 1,         !- Field 34
    Until: 24:00, 0,         !- Field 36
    For: Saturday Sunday,    !- Field 37
    Until: 24:00, 0;         !- Field 39

Schedule:Compact,
    AF207LightEquipmentSchedule,  !- Name
    On/Off,                  !- Schedule Type Limits Name
    Through: 12/31,          !- Field 1
    For: Tuesday,            !- Field 2
    Until: 08:30, 0,         !- Field 4
    Until: 17:30, 1,         !- Field 6
    Until: 24:00, 0,         !- Field 8
    For: Wednesday,          !- Field 9
    Until: 09:30, 0,         !- Field 11
    Until: 12:30, 1,         !- Field 13
    Until: 24:00, 0,         !- Field 15
    For: Friday,             !- Field 16
    Until: 08:30, 0,         !- Field 18
    Until: 15:30, 1,         !- Field 20
    Until: 24:00, 0,         !- Field 22
    For: Saturday,           !- Field 23
    Until: 08:30, 0,         !- Field 25
    Until: 11:30, 1,         !- Field 27
    Until: 24:00, 0,         !- Field 29
    For: Monday Thursday Sunday,  !- Field 30
    Until: 24:00, 0;         !- Field 32

Schedule:Compact,
    AF208LightEquipmentSchedule,  !- Name
    On/Off,                  !- Schedule Type Limits Name
    Through: 12/31,          !- Field 1
    For: Monday Wednesday,   !- Field 2
    Until: 10:30, 0,         !- Field 4
    Until: 17:30, 1,         !- Field 6
    Until: 24:00, 0,         !- Field 8
    For: Tuesday Thursday,   !- Field 9
    Until: 07:30, 0,         !- Field 11
    Until: 15:00, 1,         !- Field 13
    Until: 24:00, 0,         !- Field 15
    For: Friday,             !- Field 16
    Until: 08:30, 0,         !- Field 18
    Until: 17:30, 1,         !- Field 20
    Until: 24:00, 0,         !- Field 22
    For: Saturday,           !- Field 23
    Until: 08:30, 0,         !- Field 25
    Until: 21:00, 1,         !- Field 27
    Until: 24:00, 0,         !- Field 29
    For: Sunday,             !- Field 30
    Until: 24:00, 0;         !- Field 32

Schedule:Compact,
    AF209LightEquipmentSchedule,  !- Name
    On/Off,                  !- Schedule Type Limits Name
    Through: 12/31,          !- Field 1
    For: Monday Wednesday,   !- Field 2
    Until: 08:30, 0,         !- Field 4
    Until: 19:00, 1,         !- Field 6
    Until: 24:00, 0,         !- Field 8
    For: Tuesday Thursday,   !- Field 9
    Until: 07:30, 0,         !- Field 11
    Until: 18:00, 1,         !- Field 13
    Until: 24:00, 0,         !- Field 15
    For: Friday,             !- Field 16