!-Generator IDFEditor 1.49
!-Option SortedOrder UseSpecialFormat

!-NOTE: All comments with '!-' are ignored by the IDFEditor and are generated automatically.
!-      Use '!' comments if they need to be retained when using the IDFEditor.


!-   ===========  ALL OBJECTS IN CLASS: VERSION ===========

Version,8.7;

!-   ===========  ALL OBJECTS IN CLASS: SIMULATIONCONTROL ===========


SimulationControl,
    No,                      !- Do Zone Sizing Calculation
    No,                      !- Do System Sizing Calculation
    No,                      !- Do Plant Sizing Calculation
    Yes,                     !- Run Simulation for Sizing Periods
    Yes;                     !- Run Simulation for Weather File Run Periods


!-   ===========  ALL OBJECTS IN CLASS: BUILDING ===========

Building,
    SAFAD Building,          !- Name
    0.0,                     !- North Axis {deg}
    Suburbs,                 !- Terrain
    0.04,                    !- Loads Convergence Tolerance Value
    0.4,                     !- Temperature Convergence Tolerance Value {deltaC}
    FullInteriorAndExterior, !- Solar Distribution
    25,                      !- Maximum Number of Warmup Days
    6;                       !- Minimum Number of Warmup Days


!-   ===========  ALL OBJECTS IN CLASS: SHADOWCALCULATION ===========

ShadowCalculation,
    AverageOverDaysInFrequency,  !- Calculation Method
    20,                      !- Calculation Frequency
    15000,                   !- Maximum Figures in Shadow Overlap Calculations
    SutherlandHodgman,       !- Polygon Clipping Algorithm
    DetailedSkyDiffuseModeling;  !- Sky Diffuse Modeling Algorithm


!-   ===========  ALL OBJECTS IN CLASS: SURFACECONVECTIONALGORITHM:INSIDE ===========

SurfaceConvectionAlgorithm:Inside,TARP;

!-   ===========  ALL OBJECTS IN CLASS: SURFACECONVECTIONALGORITHM:OUTSIDE ===========

SurfaceConvectionAlgorithm:Outside,DOE-2;

!-   ===========  ALL OBJECTS IN CLASS: HEATBALANCEALGORITHM ===========

HeatBalanceAlgorithm,ConductionTransferFunction;

!-   ===========  ALL OBJECTS IN CLASS: TIMESTEP ===========

Timestep,6;

!-   ===========  ALL OBJECTS IN CLASS: SITE:LOCATION ===========


Site:Location,
    Cebu City,               !- Name
    10.35,                   !- Latitude {deg}
    123.91,                  !- Longitude {deg}
    8.0,                     !- Time Zone {hr}
    75;                      !- Elevation {m}


!-   ===========  ALL OBJECTS IN CLASS: RUNPERIOD ===========

RunPeriod,
    RunPeriod,               !- Name
    1,                       !- Begin Month
    1,                       !- Begin Day of Month
    1,                       !- End Month
    31,                      !- End Day of Month
    SUNDAY,                  !- Day of Week for Start Day
    No,                      !- Use Weather File Holidays and Special Days
    Yes,                     !- Use Weather File Daylight Saving Period
    No,                      !- Apply Weekend Holiday Rule
    Yes,                     !- Use Weather File Rain Indicators
    Yes,                     !- Use Weather File Snow Indicators
    ,                        !- Number of Times Runperiod to be Repeated
    ,                        !- Increment Day of Week on repeat
    2019;                    !- Start Year


!-   ===========  ALL OBJECTS IN CLASS: RUNPERIODCONTROL:SPECIALDAYS ===========

RunPeriodControl:SpecialDays,
    New Years Day,           !- Name
    January 1,               !- Start Date
    1,                       !- Duration {days}
    Holiday;                 !- Special Day Type

RunPeriodControl:SpecialDays,
    Chinese New Year,        !- Name
    February 5,              !- Start Date
    1,                       !- Duration {days}
    Holiday;                 !- Special Day Type

RunPeriodControl:SpecialDays,
    EDSA,                    !- Name
    February 25,             !- Start Date
    1,                       !- Duration {days}
    Holiday;                 !- Special Day Type

RunPeriodControl:SpecialDays,
    The Day of Valor,        !- Name
    April 9,                 !- Start Date
    1,                       !- Duration {days}
    Holiday;                 !- Special Day Type

RunPeriodControl:SpecialDays,
    Maundy Thursday,         !- Name
    April 18,                !- Start Date
    1,                       !- Duration {days}
    Holiday;                 !- Special Day Type

RunPeriodControl:SpecialDays,
    Good Friday,             !- Name
    April 19,                !- Start Date
    1,                       !- Duration {days}
    Holiday;                 !- Special Day Type

RunPeriodControl:SpecialDays,
    Black Saturday,          !- Name
    April 20,                !- Start Date
    1,                       !- Duration {days}
    Holiday;                 !- Special Day Type

RunPeriodControl:SpecialDays,
    Easter Sunday,           !- Name
    April 21,                !- Start Date
    1,                       !- Duration {days}
    Holiday;                 !- Special Day Type

RunPeriodControl:SpecialDays,
    Labor Day,               !- Name
    May 1,                   !- Start Date
    1,                       !- Duration {days}
    Holiday;                 !- Special Day Type

RunPeriodControl:SpecialDays,
    Eidul-Fitar,             !- Name
    June 6,                  !- Start Date
    1,                       !- Duration {days}
    Holiday;                 !- Special Day Type

RunPeriodControl:SpecialDays,
    Independence Day,        !- Name
    June 12,                 !- Start Date
    1,                       !- Duration {days}
    Holiday;                 !- Special Day Type

RunPeriodControl:SpecialDays,
    Eid al-Adha,             !- Name
    August 12,               !- Start Date
    1,                       !- Duration {days}
    Holiday;                 !- Special Day Type

RunPeriodControl:SpecialDays,
    Ninoy Aquino Day,        !- Name
    August 21,               !- Start Date
    1,                       !- Duration {days}
    Holiday;                 !- Special Day Type

RunPeriodControl:SpecialDays,
    National Heroes Day,     !- Name
    August 26,               !- Start Date
    1,                       !- Duration {days}
    Holiday;                 !- Special Day Type

RunPeriodControl:SpecialDays,
    All Saints Day,          !- Name
    November 1,              !- Start Date
    1,                       !- Duration {days}
    Holiday;                 !- Special Day Type

RunPeriodControl:SpecialDays,
    All Souls Day,           !- Name
    November 2,              !- Start Date
    1,                       !- Duration {days}
    Holiday;                 !- Special Day Type

RunPeriodControl:SpecialDays,
    Bonifacio Day,           !- Name
    November 30,             !- Start Date
    1,                       !- Duration {days}
    Holiday;                 !- Special Day Type

RunPeriodControl:SpecialDays,
    Immaculate Conception,   !- Name
    December 8,              !- Start Date
    1,                       !- Duration {days}
    Holiday;                 !- Special Day Type

RunPeriodControl:SpecialDays,
    Christmas Day,           !- Name
    December 25,             !- Start Date
    1,                       !- Duration {days}
    Holiday;                 !- Special Day Type

RunPeriodControl:SpecialDays,
    Rizal Day,               !- Name
    December 30,             !- Start Date
    1,                       !- Duration {days}
    Holiday;                 !- Special Day Type


!-   ===========  ALL OBJECTS IN CLASS: SITE:GROUNDTEMPERATURE:BUILDINGSURFACE ===========

Site:GroundTemperature:BuildingSurface,18,18,18,18,18,18,18,18,18,18,18,18;

!-   ===========  ALL OBJECTS IN CLASS: SCHEDULETYPELIMITS ===========


ScheduleTypeLimits,
    Any Number;              !- Name

ScheduleTypeLimits,
    Fraction,                !- Name
    0.0,                     !- Lower Limit Value
    1.0,                     !- Upper Limit Value
    CONTINUOUS;              !- Numeric Type

ScheduleTypeLimits,
    Temperature,             !- Name
    -60,                     !- Lower Limit Value
    200,                     !- Upper Limit Value
    CONTINUOUS;              !- Numeric Type

ScheduleTypeLimits,
    On/Off,                  !- Name
    0,                       !- Lower Limit Value
    1,                       !- Upper Limit Value
    DISCRETE;                !- Numeric Type

ScheduleTypeLimits,
    Control Type,            !- Name
    0,                       !- Lower Limit Value
    4,                       !- Upper Limit Value
    DISCRETE;                !- Numeric Type

ScheduleTypeLimits,
    Humidity,                !- Name
    10,                      !- Lower Limit Value
    90,                      !- Upper Limit Value
    CONTINUOUS;              !- Numeric Type

ScheduleTypeLimits,
    Number;                  !- Name


!-   ===========  ALL OBJECTS IN CLASS: SCHEDULE:COMPACT ===========

Schedule:Compact,
    Office Occupancy Schedule,  !- Name
    Fraction,                !- Schedule Type Limits Name
    Through: 12/31,          !- Field 1
    For: Weekdays,           !- Field 2
    Until: 06:00, 0.0,       !- Field 4
    Until: 07:00, 0.1,       !- Field 6
    Until: 08:00, 0.2,       !- Field 8
    Until: 12:00, 0.95,      !- Field 10
    Until: 13:00, 0.5,       !- Field 12
    Until: 17:00, 0.95,      !- Field 14
    Until: 18:00, 0.3,       !- Field 16
    Until: 20:00, 0.1,       !- Field 18
    Until: 24:00, 0.05,      !- Field 20
    For: SummerDesignDay,    !- Field 21
    Until: 06:00, 0.0,       !- Field 23
    Until: 22:00, 1.0,       !- Field 25
    Until: 24:00, 0.05,      !- Field 27
    For: Saturday,           !- Field 28
    Until: 06:00, 0.0,       !- Field 30
    Until: 08:00, 0.1,       !- Field 32
    Until: 12:00, 0.3,       !- Field 34
    Until: 17:00, 0.1,       !- Field 36
    Until: 19:00, 0.0,       !- Field 38
    Until: 24:00, 0.0,       !- Field 40
    For: WinterDesignDay,    !- Field 41
    Until: 24:00, 0.0,       !- Field 43
    For: Sunday Holidays AllOtherDays,  !- Field 44
    Until: 06:00, 0.0,       !- Field 46
    Until: 18:00, 0.0,       !- Field 48
    Until: 24:00, 0.0;       !- Field 50

Schedule:Compact,
    Infiltration Schedule,   !- Name
    Fraction,                !- Schedule Type Limits Name
    Through: 12/31,          !- Field 1
    For: Weekdays SummerDesignDay,  !- Field 2
    Until: 06:00, 1.0,       !- Field 4
    Until: 22:00, 0.0,       !- Field 6
    Until: 24:00, 1.0,       !- Field 8
    For: Saturday WinterDesignDay,  !- Field 9
    Until: 06:00, 1.0,       !- Field 11
    Until: 18:00, 0.0,       !- Field 13
    Until: 24:00, 1.0,       !- Field 15
    For: Sunday Holidays AllOtherDays,  !- Field 16
    Until: 24:00, 1.0;       !- Field 18

Schedule:Compact,
    Infiltration Half On Schedule,  !- Name
    Fraction,                !- Schedule Type Limits Name
    Through: 12/31,          !- Field 1
    For: Weekdays SummerDesignDay,  !- Field 2
    Until: 06:00, 1.0,       !- Field 4
    Until: 22:00, 0.5,       !- Field 6
    Until: 24:00, 1.0,       !- Field 8
    For: Saturday WinterDesignDay,  !- Field 9
    Until: 06:00, 1.0,       !- Field 11
    Until: 18:00, 0.5,       !- Field 13
    Until: 24:00, 1.0,       !- Field 15
    For: Sunday Holidays AllOtherDays,  !- Field 16
    Until: 24:00, 1.0;       !- Field 18

Schedule:Compact,
    Infiltration Quarter On Schedule,  !- Name
    Fraction,                !- Schedule Type Limits Name
    Through: 12/31,          !- Field 1
    For: Weekdays SummerDesignDay,  !- Field 2
    Until: 06:00, 1.0,       !- Field 4
    Until: 22:00, 0.25,      !- Field 6
    Until: 24:00, 1.0,       !- Field 8
    For: Saturday WinterDesignDay,  !- Field 9
    Until: 06:00, 1.0,       !- Field 11
    Until: 18:00, 0.25,      !- Field 13
    Until: 24:00, 1.0,       !- Field 15
    For: Sunday Holidays AllOtherDays,  !- Field 16
    Until: 24:00, 1.0;       !- Field 18

Schedule:Compact,
    Hours of Operation Schedule,  !- Name
    On/Off,                  !- Schedule Type Limits Name
    Through: 12/31,          !- Field 1
    For: Weekdays SummerDesignDay,  !- Field 2
    Until: 06:00, 0.0,       !- Field 4
    Until: 22:00, 1.0,       !- Field 6
    Until: 24:00, 0.0,       !- Field 8
    For: Saturday WinterDesignDay,  !- Field 9
    Until: 06:00, 0.0,       !- Field 11
    Until: 18:00, 1.0,       !- Field 13
    Until: 24:00, 0.0,       !- Field 15
    For: Sunday Holidays AllOtherDays,  !- Field 16
    Until: 24:00, 0.0;       !- Field 18

Schedule:Compact,
    AF211_ACU Schedule,      !- Name
    On/Off,                  !- Schedule Type Limits Name
    Through: 12/31,          !- Field 1
    For: AllDays,            !- Field 2
    Until: 8:00, 0,          !- Field 4
    Until: 17:00, 1,         !- Field 6
    Until: 24:00, 0;         !- Field 8

Schedule:Compact,
    Always Off,              !- Name
    Fraction,                !- Schedule Type Limits Name
    Through: 12/31,          !- Field 1
    For: AllDays,            !- Field 2
    Until: 24:00, 0.0;       !- Field 4

Schedule:Compact,
    Heating Setpoint Schedule,  !- Name
    Temperature,             !- Schedule Type Limits Name
    Through: 12/31,          !- Field 1
    For: Weekdays,           !- Field 2
    Until: 05:00, 15.6,      !- Field 4
    Until: 19:00, 21.0,      !- Field 6
    Until: 24:00, 15.6,      !- Field 8
    For SummerDesignDay,     !- Field 9
    Until: 24:00, 15.6,      !- Field 11
    For: Saturday,           !- Field 12
    Until: 06:00, 15.6,      !- Field 14
    Until: 17:00, 21.0,      !- Field 16
    Until: 24:00, 15.6,      !- Field 18
    For: WinterDesignDay,    !- Field 19
    Until: 24:00, 21.0,      !- Field 21
    For: Sunday Holidays AllOtherDays,  !- Field 22
    Until: 24:00, 15.6;      !- Field 24

Schedule:Compact,
    Office Activity Schedule,!- Name
    Any Number,              !- Schedule Type Limits Name
    Through: 12/31,          !- Field 1
    For: AllDays,            !- Field 2
    Until: 24:00, 120.;      !- Field 4

Schedule:Compact,
    Office Work Eff. Schedule,  !- Name
    Fraction,                !- Schedule Type Limits Name
    Through: 12/31,          !- Field 1
    For: AllDays,            !- Field 2
    Until: 24:00, 0.0;       !- Field 4

Schedule:Compact,
    Office Clothing Schedule,!- Name
    Any Number,              !- Schedule Type Limits Name
    Through: 04/30,          !- Field 1
    For: AllDays,            !- Field 2
    Until: 24:00, 1.0,       !- Field 4
    Through: 09/30,          !- Field 5
    For: AllDays,            !- Field 6
    Until: 24:00, 0.5,       !- Field 8
    Through: 12/31,          !- Field 9
    For: AllDays,            !- Field 10
    Until: 24:00, 1.0;       !- Field 12

Schedule:Compact,
    AF211_Occupancy Schedule,!- Name
    On/Off,                  !- Schedule Type Limits Name
    Through: 12/31,          !- Field 1
    For: Weekdays,           !- Field 2
    Until: 08:00, 0.0,       !- Field 4
    Until: 12:00, 1,         !- Field 6
    Until: 13:00, 0,         !- Field 8
    Until: 17:00, 1,         !- Field 10
    Until: 24:00, 0,         !- Field 12
    For: Saturday,           !- Field 13
    Until: 8:00, 0,          !- Field 15
    Until: 12:00, 1,         !- Field 17
    Until: 24:00, 0,         !- Field 19
    For: Sunday,             !- Field 20
    Until: 24:00, 0,         !- Field 22
    For: Holiday,            !- Field 23
    Until: 24:00, 0;         !- Field 25

Schedule:Compact,
    AF211_Cooling Setpoint Schedule,  !- Name
    Temperature,             !- Schedule Type Limits Name
    Through: 12/31,          !- Field 1
    For: AllDays,            !- Field 2
    Until: 8:00, 32,         !- Field 4
    Until: 17:00, 20,        !- Field 6
    Until: 24:00, 32;        !- Field 8

Schedule:Compact,
    Projector_Switching,     !- Name
    On/Off,                  !- Schedule Type Limits Name
    Through: 12/31,          !- Field 1
    For: AllDays,            !- Field 2
    Until: 8:00, 0,          !- Field 4
    Until: 17:00, 1,         !- Field 6
    Until: 24:00, 0;         !- Field 8

Schedule:Compact,
    AF211_Lights_schedule,   !- Name
    On/Off,                  !- Schedule Type Limits Name
    Through: 12/31,          !- Field 1
    For: AllDays,            !- Field 2
    Until: 08:00, 0.0,       !- Field 4
    Until: 17:00, 1,         !- Field 6
    Until: 24:00, 0;         !- Field 8

Schedule:Compact,
    AF211_Infiltration,      !- Name
    Fraction,                !- Schedule Type Limits Name
    Through: 12/31,          !- Field 1
    For: AllDays,            !- Field 2
    Until: 24:00, 1;         !- Field 4

Schedule:Compact,
    AF211_Control Type,      !- Name
    Any Number,              !- Schedule Type Limits Name
    Through: 12/31,          !- Field 1
    For: AllDays,            !- Field 2
    Until: 24:00, 2;         !- Field 4


!-   ===========  ALL OBJECTS IN CLASS: MATERIAL ===========

Material,
    F08 Metal surface,       !- Name
    Smooth,                  !- Roughness
    0.0008,                  !- Thickness {m}
    45.28,                   !- Conductivity {W/m-K}
    7824,                    !- Density {kg/m3}
    500;                     !- Specific Heat {J/kg-K}

Material,
    I01 25mm insulation board,  !- Name
    MediumRough,             !- Roughness
    0.0254,                  !- Thickness {m}
    0.03,                    !- Conductivity {W/m-K}
    43,                      !- Density {kg/m3}
    1210;                    !- Specific Heat {J/kg-K}

Material,
    I02 50mm insulation board,  !- Name
    MediumRough,             !- Roughness
    0.0508,                  !- Thickness {m}
    0.03,                    !- Conductivity {W/m-K}
    43,                      !- Density {kg/m3}
    1210;                    !- Specific Heat {J/kg-K}

Material,
    G01a 19mm gypsum board,  !- Name
    MediumSmooth,            !- Roughness
    0.019,                   !- Thickness {m}
    0.16,                    !- Conductivity {W/m-K}
    800,                     !- Density {kg/m3}
    1090;                    !- Specific Heat {J/kg-K}

Material,
    M11 100mm lightweight concrete,  !- Name
    MediumRough,             !- Roughness
    0.1016,                  !- Thickness {m}
    0.53,                    !- Conductivity {W/m-K}
    1280,                    !- Density {kg/m3}
    840;                     !- Specific Heat {J/kg-K}

Material,
    F16 Acoustic tile,       !- Name
    MediumSmooth,            !- Roughness
    0.0191,                  !- Thickness {m}
    0.06,                    !- Conductivity {W/m-K}
    368,                     !- Density {kg/m3}
    590;                     !- Specific Heat {J/kg-K}

Material,
    M01 100mm brick,         !- Name
    MediumRough,             !- Roughness
    0.1016,                  !- Thickness {m}
    0.89,                    !- Conductivity {W/m-K}
    1920,                    !- Density {kg/m3}
    790;                     !- Specific Heat {J/kg-K}

Material,
    M15 200mm heavyweight concrete,  !- Name
    MediumRough,             !- Roughness
    0.2032,                  !- Thickness {m}
    1.95,                    !- Conductivity {W/m-K}
    2240,                    !- Density {kg/m3}
    900;                     !- Specific Heat {J/kg-K}

Material,
    M05 200mm concrete block,!- Name
    MediumRough,             !- Roughness
    0.2032,                  !- Thickness {m}
    1.11,                    !- Conductivity {W/m-K}
    800,                     !- Density {kg/m3}
    920;                     !- Specific Heat {J/kg-K}

Material,
    G05 25mm wood,           !- Name
    MediumSmooth,            !- Roughness
    0.0254,                  !- Thickness {m}
    0.15,                    !- Conductivity {W/m-K}
    608,                     !- Density {kg/m3}
    1630;                    !- Specific Heat {J/kg-K}

Material,
    AF211_Concrete,          !- Name
    MediumSmooth,            !- Roughness
    0.25,                    !- Thickness {m}
    1.33,                    !- Conductivity {W/m-K}
    2000,                    !- Density {kg/m3}
    1000;                    !- Specific Heat {J/kg-K}

Material,
    AF211_Plywood Sheathing, !- Name
    MediumSmooth,            !- Roughness
    0.0127,                  !- Thickness {m}
    0.13,                    !- Conductivity {W/m-K}
    500,                     !- Density {kg/m3}
    1600;                    !- Specific Heat {J/kg-K}


!-   ===========  ALL OBJECTS IN CLASS: MATERIAL:AIRGAP ===========

Material:AirGap,
    Air_between_plyboard,    !- Name
    0.18;                    !- Thermal Resistance {m2-K/W}


!-   ===========  ALL OBJECTS IN CLASS: WINDOWMATERIAL:GLAZING ===========

WindowMaterial:Glazing,
    Clear 3mm,               !- Name
    SpectralAverage,         !- Optical Data Type
    ,                        !- Window Glass Spectral Data Set Name
    0.003,                   !- Thickness {m}
    0.837,                   !- Solar Transmittance at Normal Incidence
    0.075,                   !- Front Side Solar Reflectance at Normal Incidence
    0.075,                   !- Back Side Solar Reflectance at Normal Incidence
    0.7,                     !- Visible Transmittance at Normal Incidence
    0.081,                   !- Front Side Visible Reflectance at Normal Incidence
    0.081,                   !- Back Side Visible Reflectance at Normal Incidence
    0,                       !- Infrared Transmittance at Normal Incidence
    0.84,                    !- Front Side Infrared Hemispherical Emissivity
    0.84,                    !- Back Side Infrared Hemispherical Emissivity
    0.9;                     !- Conductivity {W/m-K}


!-   ===========  ALL OBJECTS IN CLASS: CONSTRUCTION ===========

Construction,
    Exterior Floor,          !- Name
    I02 50mm insulation board,  !- Outside Layer
    M15 200mm heavyweight concrete;  !- Layer 2

Construction,
    Interior Window,         !- Name
    Clear 3mm;               !- Outside Layer

Construction,
    Exterior Door,           !- Name
    F08 Metal surface,       !- Outside Layer
    I01 25mm insulation board;  !- Layer 2

Construction,
    Interior Door,           !- Name
    G05 25mm wood;           !- Outside Layer

Construction,
    AF211_ConcreteWall,      !- Name
    AF211_Concrete;          !- Outside Layer

Construction,
    AF211_PlyboardWall,      !- Name
    AF211_Plywood Sheathing, !- Outside Layer
    Air_between_plyboard,    !- Layer 2
    AF211_Plywood Sheathing; !- Layer 3

Construction,
    AF211_Window,            !- Name
    Clear 3mm;               !- Outside Layer


!-   ===========  ALL OBJECTS IN CLASS: GLOBALGEOMETRYRULES ===========

GlobalGeometryRules,
    UpperLeftCorner,         !- Starting Vertex Position
    Counterclockwise,        !- Vertex Entry Direction
    Relative,                !- Coordinate System
    Relative;                !- Daylighting Reference Point Coordinate System


!-   ===========  ALL OBJECTS IN CLASS: ZONE ===========

Zone,
    ZONE 1_TEST,             !- Name
    0.0,                     !- Direction of Relative North {deg}
    101.556874, 29.735706, 7.6,         !- X,Y,Z  {m}
    1,                       !- Type
    1,                       !- Multiplier
    autocalculate,           !- Ceiling Height {m}
    autocalculate,           !- Volume {m3}
    autocalculate;           !- Floor Area {m2}


!-   ===========  ALL OBJECTS IN CLASS: BUILDINGSURFACE:DETAILED ===========

BuildingSurface:Detailed,
    6F5608,                  !- Name
    Floor,                   !- Surface Type
    AF211_ConcreteWall,      !- Construction Name
    ZONE 1_TEST,             !- Zone Name
    Adiabatic,               !- Outside Boundary Condition
    ,                        !- Outside Boundary Condition Object
    NoSun,                   !- Sun Exposure
    NoWind,                  !- Wind Exposure
    0.0,                     !- View Factor to Ground
    4,                       !- Number of Vertices
    -56.901444314415, -84.199974903156, 6.030000000000,
                                        !- X,Y,Z  1 {m}
    -60.164282842529, -96.080053806035, 6.030000000000,
                                        !- X,Y,Z  2 {m}
    -67.044507260378, -94.190414730727, 6.030000000000,
                                        !- X,Y,Z  3 {m}
    -63.781668732263, -82.310335827847, 6.030000000000;
                                        !- X,Y,Z  4 {m}

BuildingSurface:Detailed,
    AF211_plyboard_1,        !- Name
    Wall,                    !- Surface Type
    AF211_PlyboardWall,      !- Construction Name
    ZONE 1_TEST,             !- Zone Name
    Outdoors,                !- Outside Boundary Condition
    ,                        !- Outside Boundary Condition Object
    SunExposed,              !- Sun Exposure
    WindExposed,             !- Wind Exposure
    ,                        !- View Factor to Ground
    4,                       !- Number of Vertices
    -56.901444314415, -84.199974903156, 9.270000000000,
                                        !- X,Y,Z  1 {m}
    -56.901444314415, -84.199974903156, 6.030000000000,
                                        !- X,Y,Z  2 {m}
    -63.781668732263, -82.310335827847, 6.030000000000,
                                        !- X,Y,Z  3 {m}
    -63.781668732263, -82.310335827847, 9.270000000000;
                                        !- X,Y,Z  4 {m}

BuildingSurface:Detailed,
    6F287D,                  !- Name
    Wall,                    !- Surface Type
    AF211_ConcreteWall,      !- Construction Name
    ZONE 1_TEST,             !- Zone Name
    Outdoors,                !- Outside Boundary Condition
    ,                        !- Outside Boundary Condition Object
    SunExposed,              !- Sun Exposure
    WindExposed,             !- Wind Exposure
    ,                        !- View Factor to Ground
    4,                       !- Number of Vertices
    -67.044507260378, -94.190414730727, 9.270000000000,
                                        !- X,Y,Z  1 {m}
    -67.044507260378, -94.190414730727, 6.030000000000,
                                        !- X,Y,Z  2 {m}
    -60.164282842529, -96.080053806035, 6.030000000000,
                                        !- X,Y,Z  3 {m}
    -60.164282842529, -96.080053806035, 9.270000000000;
                                        !- X,Y,Z  4 {m}

BuildingSurface:Detailed,
    AF211_plyboard_2,        !- Name
    Wall,                    !- Surface Type
    AF211_PlyboardWall,      !- Construction Name
    ZONE 1_TEST,             !- Zone Name
    Adiabatic,               !- Outside Boundary Condition
    ,                        !- Outside Boundary Condition Object
    NoSun,                   !- Sun Exposure
    NoWind,                  !- Wind Exposure
    0.0,                     !- View Factor to Ground
    4,                       !- Number of Vertices
    -63.781668732263, -82.310335827847, 9.270000000000,
                                        !- X,Y,Z  1 {m}
    -63.781668732263, -82.310335827847, 6.030000000000,
                                        !- X,Y,Z  2 {m}
    -67.044507260378, -94.190414730727, 6.030000000000,
                                        !- X,Y,Z  3 {m}
    -67.044507260378, -94.190414730727, 9.270000000000;
                                        !- X,Y,Z  4 {m}

BuildingSurface:Detailed,
    423191,                  !- Name
    Wall,                    !- Surface Type
    AF211_ConcreteWall,      !- Construction Name
    ZONE 1_TEST,             !- Zone Name
    Adiabatic,               !- Outside Boundary Condition
    ,                        !- Outside Boundary Condition Object
    NoSun,                   !- Sun Exposure
    NoWind,                  !- Wind Exposure
    0.0,                     !- View Factor to Ground
    4,                       !- Number of Vertices
    -60.164282842529, -96.080053806035, 9.270000000000,
                                        !- X,Y,Z  1 {m}
    -60.164282842529, -96.080053806035, 6.030000000000,
                                        !- X,Y,Z  2 {m}
    -56.901444314415, -84.199974903156, 6.030000000000,
                                        !- X,Y,Z  3 {m}
    -56.901444314415, -84.199974903156, 9.270000000000;
                                        !- X,Y,Z  4 {m}


!-   ===========  ALL OBJECTS IN CLASS: FENESTRATIONSURFACE:DETAILED ===========

FenestrationSurface:Detailed,
    BAC353,                  !- Name
    Window,                  !- Surface Type
    AF211_Window,            !- Construction Name
    AF211_plyboard_1,        !- Building Surface Name
    ,                        !- Outside Boundary Condition Object
    ,                        !- View Factor to Ground
    ,                        !- Shading Control Name
    ,                        !- Frame and Divider Name
    ,                        !- Multiplier
    4,                       !- Number of Vertices
    -58.656042333836, -83.718078270488, 9.070000000000,
                                        !- X,Y,Z  1 {m}
    -58.656042333836, -83.718078270488, 8.370000000000,
                                        !- X,Y,Z  2 {m}
    -63.188215441226, -82.473326518268, 8.370000000000,
                                        !- X,Y,Z  3 {m}
    -63.188215441226, -82.473326518268, 9.070000000000;
                                        !- X,Y,Z  4 {m}

FenestrationSurface:Detailed,
    A26EDF,                  !- Name
    Window,                  !- Surface Type
    AF211_Window,            !- Construction Name
    6F287D,                  !- Building Surface Name
    ,                        !- Outside Boundary Condition Object
    ,                        !- View Factor to Ground
    ,                        !- Shading Control Name
    ,                        !- Frame and Divider Name